@<TRIPOS>MOLECULE
MON
   61    63     1     0     0
SMALL
rc


@<TRIPOS>ATOM
      1 O           -2.7400     2.7080     1.8790 o          1 MON      -0.491296
      2 C           -2.4810     1.5410     1.7060 c          1 MON       0.346124
      3 C1          -3.4480     0.3990     1.5860 c5         1 MON       0.002427
      4 H           -4.0440     0.3590     2.4940 hc         1 MON       0.077473
      5 C2          -2.5710    -0.8390     1.4110 c5         1 MON       0.003783
      6 C3          -2.9810    -1.4980     0.0680 c5         1 MON      -0.066110
      7 C4          -2.1120    -1.1090    -1.0870 c2         1 MON      -0.061768
      8 C5          -1.4240    -1.9680    -1.8200 c2         1 MON      -0.408850
      9 C6          -4.4120    -0.9830    -0.1080 c5         1 MON      -0.082228
     10 C7          -4.3550     0.4690     0.3420 c5         1 MON      -0.014996
     11 C8          -5.6590     1.1480     0.6040 c2         1 MON      -0.150842
     12 C9          -6.8560     0.6390     0.3600 c2         1 MON      -0.395323
     13 H1          -2.7010    -1.5510     2.2210 hc         1 MON       0.084618
     14 N           -1.1950     1.0490     1.5880 n          1 MON       0.068595
     15 C10         -0.0060     1.8820     1.7140 c3         1 MON      -0.012885
     16 C11          0.1510     2.9300     0.6260 c3         1 MON      -0.013673
     17 C12         -0.0550     2.4390    -0.7970 c3         1 MON      -0.064171
     18 C13          0.6750     1.1700    -1.1510 c3         1 MON       0.019563
     19 O1           2.0640     1.2980    -0.8820 os         1 MON      -0.278895
     20 C14          2.7680     0.0770    -0.9530 c6         1 MON      -0.042204
     21 C15          3.5090    -0.2060     0.3370 c6         1 MON      -0.010145
     22 O2           2.6550    -0.2990     1.4600 oh         1 MON      -0.485971
     23 C16          4.3390    -1.4760     0.1770 c6         1 MON       0.044558
     24 C17          5.1820    -1.7800     1.3980 c3         1 MON       0.051920
     25 O3           4.3980    -2.2120     2.4900 oh         1 MON      -0.597306
     26 O4           5.2330    -1.3210    -0.9110 os         1 MON      -0.307871
     27 C18          4.5680    -1.1570    -2.1300 c6         1 MON       0.236100
     28 O5           5.5630    -1.1150    -3.1010 oh         1 MON      -0.605321
     29 C19          3.7540     0.1190    -2.1010 c6         1 MON      -0.014787
     30 O6           3.1080     0.2300    -3.3500 oh         1 MON      -0.630660
     31 C20         -1.1630    -0.3240     1.4800 c          1 MON       0.171952
     32 O7          -0.1490    -0.9870     1.4490 o          1 MON      -0.421707
     33 H2          -2.9590    -2.5800     0.1650 hc         1 MON       0.093661
     34 H3          -2.0650    -0.0540    -1.3300 ha         1 MON       0.101237
     35 H4          -0.8170    -1.6360    -2.6500 ha         1 MON       0.174629
     36 H5          -1.4440    -3.0280    -1.6050 ha         1 MON       0.174629
     37 H6          -5.0760    -1.5410     0.5530 hc         1 MON       0.057381
     38 H7          -4.7720    -1.0990    -1.1260 hc         1 MON       0.057381
     39 H8          -3.8340     1.0520    -0.4200 hc         1 MON       0.100226
     40 H9          -5.5840     2.1460     1.0210 ha         1 MON       0.136618
     41 H10         -7.7520     1.2030     0.5750 ha         1 MON       0.169291
     42 H11         -6.9810    -0.3490    -0.0610 ha         1 MON       0.169291
     43 H12          0.8370     1.2040     1.7110 h1         1 MON       0.051607
     44 H13         -0.0410     2.3650     2.6880 h1         1 MON       0.051607
     45 H14         -0.5320     3.7550     0.8090 hc         1 MON       0.031112
     46 H15          1.1580     3.3270     0.7360 hc         1 MON       0.031112
     47 H16         -1.1140     2.2500    -0.9760 hc         1 MON       0.035128
     48 H17          0.2350     3.2330    -1.4840 hc         1 MON       0.035128
     49 H18          0.5200     0.9350    -2.2050 h1         1 MON       0.056198
     50 H19          0.2850     0.3330    -0.5780 h1         1 MON       0.056198
     51 H20          2.0650    -0.7410    -1.1340 h1         1 MON       0.136513
     52 H21          4.1910     0.6190     0.5410 h1         1 MON       0.150194
     53 H22          1.8030    -0.7030     1.2350 ho         1 MON       0.375342
     54 H23          3.6690    -2.3220    -0.0100 h1         1 MON       0.111494
     55 H24          5.8720    -2.5820     1.1510 h1         1 MON       0.089813
     56 H25          5.7680    -0.8960     1.6580 h1         1 MON       0.089813
     57 H26          3.6690    -1.5840     2.5780 ho         1 MON       0.370778
     58 H27          3.9020    -2.0110    -2.2990 h2         1 MON       0.107304
     59 H28          5.1800    -0.7420    -3.9030 ho         1 MON       0.446265
     60 H29          4.4430     0.9530    -1.9520 h1         1 MON       0.140141
     61 H30          2.7510     1.1180    -3.4370 ho         1 MON       0.449804
@<TRIPOS>BOND
     1    59    28 1   
     2    61    30 1   
     3    30    29 1   
     4    28    27 1   
     5    35     8 1   
     6    58    27 1   
     7    49    18 1   
     8    27    29 1   
     9    27    26 1   
    10    29    60 1   
    11    29    20 1   
    12     8    36 1   
    13     8     7 2   
    14    48    17 1   
    15    34     7 1   
    16    18    19 1   
    17    18    17 1   
    18    18    50 1   
    19    51    20 1   
    20    38     9 1   
    21     7     6 1   
    22    47    17 1   
    23    20    19 1   
    24    20    21 1   
    25    26    23 1   
    26    17    16 1   
    27    39    10 1   
    28     9     6 1   
    29     9    10 1   
    30     9    37 1   
    31    42    12 1   
    32    54    23 1   
    33     6    33 1   
    34     6     5 1   
    35    23    21 1   
    36    23    24 1   
    37    21    52 1   
    38    21    22 1   
    39    10    11 1   
    40    10     3 1   
    41    12    41 1   
    42    12    11 2   
    43    11    40 1   
    44    16    46 1   
    45    16    45 1   
    46    16    15 1   
    47    55    24 1   
    48    53    22 1   
    49    24    56 1   
    50    24    25 1   
    51     5    31 1   
    52     5     3 1   
    53     5    13 1   
    54    32    31 2   
    55    31    14 1   
    56     3     2 1   
    57     3     4 1   
    58    14     2 1   
    59    14    15 1   
    60     2     1 2   
    61    43    15 1   
    62    15    44 1   
    63    25    57 1   
@<TRIPOS>SUBSTRUCTURE
     1 MON         1 TEMP              0 ****  ****    0 ROOT
