@<TRIPOS>MOLECULE
name: O=C([C@]1([H])[C@]2(C(C=C)CC1C=C)[H])N(CCCCO[C@@H]3[C@@H](O)[C@H](CO)O[C@H](O)[C@H]3O)C2=O (Conformer 1) (Step 76); charge: 0; multiplicity: 1; energy: -275.90044300; method: ωB97M-D3BJ; basis_set: vDZP; engine: GPU4PySCF; generated_by: Rowan; timestamp: 2026-09-16 17:41:35;
 61 63 0 0 0
SMALL
GASTEIGER

@<TRIPOS>ATOM
      1 O          -2.7398    2.7075    1.8787 O.2     1  UNL1       -0.2748
      2 C          -2.4812    1.5407    1.7062 C.2     1  UNL1        0.2262
      3 C          -3.4478    0.3993    1.5861 C.3     1  UNL1        0.0540
      4 H          -4.0438    0.3595    2.4942 H       1  UNL1        0.0408
      5 C          -2.5715   -0.8391    1.4114 C.3     1  UNL1        0.0540
      6 C          -2.9806   -1.4983    0.0680 C.3     1  UNL1       -0.0108
      7 C          -2.1125   -1.1095   -1.0866 C.2     1  UNL1       -0.0873
      8 C          -1.4240   -1.9676   -1.8196 C.2     1  UNL1       -0.1023
      9 C          -4.4122   -0.9832   -0.1076 C.3     1  UNL1       -0.0391
     10 C          -4.3553    0.4690    0.3423 C.3     1  UNL1       -0.0108
     11 C          -5.6590    1.1484    0.6039 C.2     1  UNL1       -0.0873
     12 C          -6.8557    0.6392    0.3602 C.2     1  UNL1       -0.1023
     13 H          -2.7012   -1.5514    2.2208 H       1  UNL1        0.0408
     14 N          -1.1951    1.0487    1.5876 N.am    1  UNL1       -0.2416
     15 C          -0.0065    1.8821    1.7141 C.3     1  UNL1        0.0224
     16 C           0.1508    2.9305    0.6262 C.3     1  UNL1       -0.0346
     17 C          -0.0547    2.4390   -0.7967 C.3     1  UNL1       -0.0280
     18 C           0.6749    1.1704   -1.1507 C.3     1  UNL1        0.0483
     19 O           2.0645    1.2979   -0.8816 O.3     1  UNL1       -0.3712
     20 C           2.7678    0.0775   -0.9527 C.3     1  UNL1        0.1175
     21 C           3.5089   -0.2063    0.3374 C.3     1  UNL1        0.1122
     22 O           2.6545   -0.2995    1.4595 O.3     1  UNL1       -0.3865
     23 C           4.3390   -1.4765    0.1770 C.3     1  UNL1        0.1130
     24 C           5.1817   -1.7804    1.3979 C.3     1  UNL1        0.0730
     25 O           4.3981   -2.2119    2.4895 O.3     1  UNL1       -0.3924
     26 O           5.2333   -1.3209   -0.9112 O.3     1  UNL1       -0.3407
     27 C           4.5680   -1.1567   -2.1300 C.3     1  UNL1        0.1854
     28 O           5.5632   -1.1145   -3.1014 O.3     1  UNL1       -0.3649
     29 C           3.7544    0.1192   -2.1012 C.3     1  UNL1        0.1342
     30 O           3.1080    0.2298   -3.3499 O.3     1  UNL1       -0.3841
     31 C          -1.1629   -0.3239    1.4799 C.2     1  UNL1        0.2262
     32 O          -0.1488   -0.9870    1.4486 O.2     1  UNL1       -0.2748
     33 H          -2.9590   -2.5797    0.1654 H       1  UNL1        0.0351
     34 H          -2.0650   -0.0537   -1.3298 H       1  UNL1        0.0569
     35 H          -0.8170   -1.6357   -2.6495 H       1  UNL1        0.0532
     36 H          -1.4436   -3.0284   -1.6053 H       1  UNL1        0.0532
     37 H          -5.0757   -1.5409    0.5529 H       1  UNL1        0.0277
     38 H          -4.7721   -1.0991   -1.1264 H       1  UNL1        0.0277
     39 H          -3.8336    1.0515   -0.4203 H       1  UNL1        0.0351
     40 H          -5.5838    2.1455    1.0214 H       1  UNL1        0.0569
     41 H          -7.7519    1.2031    0.5748 H       1  UNL1        0.0532
     42 H          -6.9813   -0.3486   -0.0612 H       1  UNL1        0.0532
     43 H           0.8370    1.2039    1.7108 H       1  UNL1        0.0469
     44 H          -0.0410    2.3649    2.6876 H       1  UNL1        0.0469
     45 H          -0.5325    3.7553    0.8091 H       1  UNL1        0.0281
     46 H           1.1583    3.3272    0.7362 H       1  UNL1        0.0281
     47 H          -1.1139    2.2503   -0.9759 H       1  UNL1        0.0288
     48 H           0.2354    3.2327   -1.4839 H       1  UNL1        0.0288
     49 H           0.5199    0.9353   -2.2054 H       1  UNL1        0.0560
     50 H           0.2851    0.3325   -0.5781 H       1  UNL1        0.0560
     51 H           2.0648   -0.7410   -1.1344 H       1  UNL1        0.0650
     52 H           4.1912    0.6194    0.5408 H       1  UNL1        0.0647
     53 H           1.8027   -0.7025    1.2354 H       1  UNL1        0.2100
     54 H           3.6687   -2.3220   -0.0097 H       1  UNL1        0.0647
     55 H           5.8717   -2.5823    1.1511 H       1  UNL1        0.0584
     56 H           5.7681   -0.8963    1.6577 H       1  UNL1        0.0584
     57 H           3.6690   -1.5841    2.5776 H       1  UNL1        0.2095
     58 H           3.9019   -2.0115   -2.2985 H       1  UNL1        0.0935
     59 H           5.1798   -0.7419   -3.9030 H       1  UNL1        0.2126
     60 H           4.4429    0.9532   -1.9520 H       1  UNL1        0.0671
     61 H           2.7512    1.1180   -3.4373 H       1  UNL1        0.2101
@<TRIPOS>BOND
     1    59    28    1
     2    61    30    1
     3    30    29    1
     4    28    27    1
     5    35     8    1
     6    58    27    1
     7    49    18    1
     8    27    29    1
     9    27    26    1
    10    29    60    1
    11    29    20    1
    12     8    36    1
    13     8     7    2
    14    48    17    1
    15    34     7    1
    16    18    19    1
    17    18    17    1
    18    18    50    1
    19    51    20    1
    20    38     9    1
    21     7     6    1
    22    47    17    1
    23    20    19    1
    24    20    21    1
    25    26    23    1
    26    17    16    1
    27    39    10    1
    28     9     6    1
    29     9    10    1
    30     9    37    1
    31    42    12    1
    32    54    23    1
    33     6    33    1
    34     6     5    1
    35    23    21    1
    36    23    24    1
    37    21    52    1
    38    21    22    1
    39    10    11    1
    40    10     3    1
    41    12    41    1
    42    12    11    2
    43    11    40    1
    44    16    46    1
    45    16    45    1
    46    16    15    1
    47    55    24    1
    48    53    22    1
    49    24    56    1
    50    24    25    1
    51     5    31    1
    52     5     3    1
    53     5    13    1
    54    32    31    2
    55    31    14   am
    56     3     2    1
    57     3     4    1
    58    14     2   am
    59    14    15    1
    60     2     1    2
    61    43    15    1
    62    15    44    1
    63    25    57    1
