@<TRIPOS>MOLECULE
MON
 55 57 1 0 0
SMALL
USER_CHARGES

@<TRIPOS>ATOM
     1 O       -2.7400    2.7080    1.8790 o    1 MON   -0.45650150
     2 C       -2.4810    1.5410    1.7060 c    1 MON    0.25903800
     3 C1      -3.4480    0.3990    1.5860 c5   1 MON    0.00310500
     4 H       -4.0440    0.3590    2.4940 hc   1 MON    0.08104550
     5 C2      -2.5710   -0.8390    1.4110 c5   1 MON    0.00310500
     6 C3      -2.9810   -1.4980    0.0680 c5   1 MON   -0.04055300
     7 C4      -2.1120   -1.1090   -1.0870 c2   1 MON   -0.16447100
     8 C6      -4.4120   -0.9830   -0.1080 c5   1 MON   -0.08222800
     9 C7      -4.3550    0.4690    0.3420 c5   1 MON   -0.04055300
    10 C8      -5.6590    1.1480    0.6040 c2   1 MON   -0.16447100
    11 H1      -2.7010   -1.5510    2.2210 hc   1 MON    0.08104550
    12 N       -1.1950    1.0490    1.5880 n    1 MON    0.06859500
    13 C10     -0.0060    1.8820    1.7140 c3   1 MON   -0.01288500
    14 C11      0.1510    2.9300    0.6260 c3   1 MON   -0.01367300
    15 C12     -0.0550    2.4390   -0.7970 c3   1 MON   -0.06417100
    16 C13      0.6750    1.1700   -1.1510 c3   1 MON    0.01956300
    17 O1       2.0640    1.2980   -0.8820 os   1 MON   -0.27889500
    18 C14      2.7680    0.0770   -0.9530 c6   1 MON   -0.04220400
    19 C15      3.5090   -0.2060    0.3370 c6   1 MON   -0.01014500
    20 O2       2.6550   -0.2990    1.4600 oh   1 MON   -0.48597100
    21 C16      4.3390   -1.4760    0.1770 c6   1 MON    0.04455800
    22 C17      5.1820   -1.7800    1.3980 c3   1 MON    0.05192000
    23 O3       4.3980   -2.2120    2.4900 oh   1 MON   -0.59730600
    24 O4       5.2330   -1.3210   -0.9110 os   1 MON   -0.30787100
    25 C18      4.5680   -1.1570   -2.1300 c6   1 MON    0.23610000
    26 O5       5.5630   -1.1150   -3.1010 oh   1 MON   -0.60532100
    27 C19      3.7540    0.1190   -2.1010 c6   1 MON   -0.01478700
    28 O6       3.1080    0.2300   -3.3500 oh   1 MON   -0.63066000
    29 C20     -1.1630   -0.3240    1.4800 c    1 MON    0.25903800
    30 O7      -0.1490   -0.9870    1.4490 o    1 MON   -0.45650150
    31 H2      -2.9590   -2.5800    0.1650 hc   1 MON    0.09694350
    32 H3      -2.0650   -0.0540   -1.3300 ha   1 MON    0.11892750
    33 H6      -5.0760   -1.5410    0.5530 hc   1 MON    0.05738100
    34 H7      -4.7720   -1.0990   -1.1260 hc   1 MON    0.05738100
    35 H8      -3.8340    1.0520   -0.4200 hc   1 MON    0.09694350
    36 H9      -5.5840    2.1460    1.0210 ha   1 MON    0.11892750
    37 H12      0.8370    1.2040    1.7110 h1   1 MON    0.05160700
    38 H13     -0.0410    2.3650    2.6880 h1   1 MON    0.05160700
    39 H14     -0.5320    3.7550    0.8090 hc   1 MON    0.03111200
    40 H15      1.1580    3.3270    0.7360 hc   1 MON    0.03111200
    41 H16     -1.1140    2.2500   -0.9760 hc   1 MON    0.03512800
    42 H17      0.2350    3.2330   -1.4840 hc   1 MON    0.03512800
    43 H18      0.5200    0.9350   -2.2050 h1   1 MON    0.05619800
    44 H19      0.2850    0.3330   -0.5780 h1   1 MON    0.05619800
    45 H20      2.0650   -0.7410   -1.1340 h1   1 MON    0.13651300
    46 H21      4.1910    0.6190    0.5410 h1   1 MON    0.15019400
    47 H22      1.8030   -0.7030    1.2350 ho   1 MON    0.37534200
    48 H23      3.6690   -2.3220   -0.0100 h1   1 MON    0.11149400
    49 H24      5.8720   -2.5820    1.1510 h1   1 MON    0.08981300
    50 H25      5.7680   -0.8960    1.6580 h1   1 MON    0.08981300
    51 H26      3.6690   -1.5840    2.5780 ho   1 MON    0.37077800
    52 H27      3.9020   -2.0110   -2.2990 h2   1 MON    0.10730400
    53 H28      5.1800   -0.7420   -3.9030 ho   1 MON    0.44626500
    54 H29      4.4430    0.9530   -1.9520 h1   1 MON    0.14014100
    55 H30      2.7510    1.1180   -3.4370 ho   1 MON    0.44980400
@<TRIPOS>BOND
     1    53    26 1
     2    55    28 1
     3    28    27 1
     4    26    25 1
     5    52    25 1
     6    43    16 1
     7    25    27 1
     8    25    24 1
     9    27    54 1
    10    27    18 1
    11    42    15 1
    12    32     7 1
    13    16    17 1
    14    16    15 1
    15    16    44 1
    16    45    18 1
    17    34     8 1
    18     7     6 1
    19    41    15 1
    20    18    17 1
    21    18    19 1
    22    24    21 1
    23    15    14 1
    24    35     9 1
    25     8     6 1
    26     8     9 1
    27     8    33 1
    28    48    21 1
    29     6    31 1
    30     6     5 1
    31    21    19 1
    32    21    22 1
    33    19    46 1
    34    19    20 1
    35     9    10 1
    36     9     3 1
    37    10    36 1
    38    14    40 1
    39    14    39 1
    40    14    13 1
    41    49    22 1
    42    47    20 1
    43    22    50 1
    44    22    23 1
    45     5    29 1
    46     5     3 1
    47     5    11 1
    48    30    29 2
    49    29    12 1
    50     3     2 1
    51     3     4 1
    52    12     2 1
    53    12    13 1
    54     2     1 2
    55    37    13 1
    56    13    38 1
    57    23    51 1
@<TRIPOS>SUBSTRUCTURE
     1 MON         1 TEMP              0 ****  ****    0 ROOT
@<TRIPOS>HEADTAIL
C4 1
C8 1
