@<TRIPOS>MOLECULE
CPT
 3 2 1 0 0
SMALL
USER_CHARGES

@<TRIPOS>ATOM
     1 CC      -6.8560    0.6390    0.3600 c2   1 CPT   -0.40208650
     2 HC1     -7.7520    1.2030    0.5750 ha   1 CPT    0.17196000
     3 HC2     -6.9810   -0.3490   -0.0610 ha   1 CPT    0.17196000
@<TRIPOS>BOND
     1     1     2 1
     2     1     3 1
@<TRIPOS>SUBSTRUCTURE
     1 CPT         1 TEMP              0 ****  ****    0 ROOT
@<TRIPOS>HEADTAIL
CC 1
0 0
