@<TRIPOS>MOLECULE
PYR
   26    29     1     0     0
SMALL
rc


@<TRIPOS>ATOM
      1 C           -3.5110    -0.0400     0.0060 ca         1 PYR      -0.341022
      2 C1          -2.8280     1.1760     0.0070 ca         1 PYR      -0.214145
      3 C2          -1.4250     1.2080     0.0010 ca         1 PYR      -0.002056
      4 C3          -0.7210     2.4200    -0.0030 ca         1 PYR      -0.296205
      5 C4           0.6760     2.4340    -0.0050 ca         1 PYR      -0.296205
      6 C5           1.4060     1.2370    -0.0030 ca         1 PYR      -0.002056
      7 C6           2.8090     1.2340    -0.0010 ca         1 PYR      -0.214145
      8 C7           3.5170     0.0330     0.0000 ca         1 PYR      -0.341022
      9 C8           2.8330    -1.1820    -0.0020 ca         1 PYR      -0.214145
     10 C9           1.4310    -1.2120    -0.0040 ca         1 PYR      -0.002056
     11 C10          0.7270    -2.4240    -0.0050 ca         1 PYR      -0.296205
     12 C11         -0.6700    -2.4390    -0.0060 ca         1 PYR      -0.296205
     13 C12         -1.3990    -1.2420    -0.0030 ca         1 PYR      -0.002056
     14 C13         -2.8020    -1.2400    -0.0010 ca         1 PYR      -0.214145
     15 C14         -0.7050    -0.0090    -0.0020 ca         1 PYR       0.090780
     16 C15          0.7120     0.0050    -0.0030 ca         1 PYR       0.090780
     17 H           -4.5980    -0.0510     0.0110 ha         1 PYR       0.270996
     18 H1          -3.4000     2.1010     0.0140 ha         1 PYR       0.242191
     19 H2          -1.2550     3.3670    -0.0040 ha         1 PYR       0.259838
     20 H3           1.1910     3.3920    -0.0080 ha         1 PYR       0.259838
     21 H4           3.3610     2.1710     0.0010 ha         1 PYR       0.242191
     22 H5           4.6040     0.0440     0.0030 ha         1 PYR       0.270996
     23 H6           3.4040    -2.1080    -0.0020 ha         1 PYR       0.242191
     24 H7           1.2610    -3.3710    -0.0060 ha         1 PYR       0.259838
     25 H8          -1.1850    -3.3970    -0.0070 ha         1 PYR       0.259838
     26 H9          -3.3540    -2.1780    -0.0030 ha         1 PYR       0.242191
@<TRIPOS>BOND
     1    20     5 1   
     2    25    12 1   
     3    24    11 1   
     4    12    11 ar  
     5    12    13 ar  
     6    11    10 ar  
     7     5     6 ar  
     8     5     4 ar  
     9    19     4 1   
    10    10    16 ar  
    11    10     9 ar  
    12     6    16 ar  
    13     6     7 ar  
    14    26    14 1   
    15    16    15 ar  
    16    13    15 ar  
    17    13    14 ar  
    18     4     3 ar  
    19     9    23 1   
    20     9     8 ar  
    21    15     3 ar  
    22     7     8 ar  
    23     7    21 1   
    24    14     1 ar  
    25     8    22 1   
    26     3     2 ar  
    27     1     2 ar  
    28     1    17 1   
    29     2    18 1   
@<TRIPOS>SUBSTRUCTURE
     1 PYR         1 TEMP              0 ****  ****    0 ROOT
