@<TRIPOS>MOLECULE
Coordinates from ORCA-job pyrene_hf_opt
 26 29 0 0 0
SMALL
GASTEIGER

@<TRIPOS>ATOM
      1 C          -3.5110   -0.0396    0.0064 C.ar    1  UNL1       -0.0606
      2 C          -2.8277    1.1761    0.0075 C.ar    1  UNL1       -0.0540
      3 C          -1.4252    1.2078    0.0013 C.ar    1  UNL1       -0.0167
      4 C          -0.7208    2.4197   -0.0026 C.ar    1  UNL1       -0.0534
      5 C           0.6764    2.4341   -0.0050 C.ar    1  UNL1       -0.0534
      6 C           1.4059    1.2374   -0.0030 C.ar    1  UNL1       -0.0167
      7 C           2.8087    1.2345   -0.0009 C.ar    1  UNL1       -0.0540
      8 C           3.5171    0.0333    0.0002 C.ar    1  UNL1       -0.0606
      9 C           2.8331   -1.1820   -0.0019 C.ar    1  UNL1       -0.0540
     10 C           1.4309   -1.2123   -0.0035 C.ar    1  UNL1       -0.0167
     11 C           0.7268   -2.4240   -0.0053 C.ar    1  UNL1       -0.0534
     12 C          -0.6703   -2.4386   -0.0057 C.ar    1  UNL1       -0.0534
     13 C          -1.3994   -1.2418   -0.0027 C.ar    1  UNL1       -0.0167
     14 C          -2.8019   -1.2403   -0.0005 C.ar    1  UNL1       -0.0540
     15 C          -0.7054   -0.0094   -0.0017 C.ar    1  UNL1       -0.0025
     16 C           0.7115    0.0055   -0.0029 C.ar    1  UNL1       -0.0025
     17 H          -4.5978   -0.0515    0.0106 H       1  UNL1        0.0618
     18 H          -3.3995    2.1012    0.0137 H       1  UNL1        0.0624
     19 H          -1.2554    3.3667   -0.0041 H       1  UNL1        0.0624
     20 H           1.1914    3.3924   -0.0082 H       1  UNL1        0.0624
     21 H           3.3613    2.1714    0.0007 H       1  UNL1        0.0624
     22 H           4.6040    0.0440    0.0027 H       1  UNL1        0.0618
     23 H           3.4041   -2.1076   -0.0015 H       1  UNL1        0.0624
     24 H           1.2613   -3.3713   -0.0063 H       1  UNL1        0.0624
     25 H          -1.1852   -3.3967   -0.0069 H       1  UNL1        0.0624
     26 H          -3.3536   -2.1777   -0.0029 H       1  UNL1        0.0624
@<TRIPOS>BOND
     1    20     5    1
     2    25    12    1
     3    24    11    1
     4    12    11   ar
     5    12    13   ar
     6    11    10   ar
     7     5     6   ar
     8     5     4   ar
     9    19     4    1
    10    10    16   ar
    11    10     9   ar
    12     6    16   ar
    13     6     7   ar
    14    26    14    1
    15    16    15   ar
    16    13    15   ar
    17    13    14   ar
    18     4     3   ar
    19     9    23    1
    20     9     8   ar
    21    15     3   ar
    22     7     8   ar
    23     7    21    1
    24    14     1   ar
    25     8    22    1
    26     3     2   ar
    27     1     2   ar
    28     1    17    1
    29     2    18    1
