@<TRIPOS>MOLECULE
CPH
 3 2 1 0 0
SMALL
USER_CHARGES

@<TRIPOS>ATOM
     1 CC      -1.4240   -1.9680   -1.8200 c2   1 CPH   -0.40208650
     2 HC1     -0.8170   -1.6360   -2.6500 ha   1 CPH    0.17196000
     3 HC2     -1.4440   -3.0280   -1.6050 ha   1 CPH    0.17196000
@<TRIPOS>BOND
     1     1     2 1
     2     1     3 1
@<TRIPOS>SUBSTRUCTURE
     1 CPH         1 TEMP              0 ****  ****    0 ROOT
@<TRIPOS>HEADTAIL
0 0
CC 1
